12
 generated by VMD
  C          1.723000       -0.606000        0.553000
  C          0.938000        0.493000        1.268000
  N          0.973000       -1.896000        0.647000
  C          3.076000       -0.762000        1.203000
  O          4.091000       -0.587000        0.548000
  O          3.159000       -1.076000        2.431000
  H          0.809000        0.224000        2.314000
  H          1.483000        1.431000        1.199000
  H          1.851000       -0.337000       -0.494000
  H          1.505000       -2.640000        0.163000
  H          0.045000       -1.789000        0.202000
  H          0.850000       -2.152000        1.642000
