19
 generated by VMD
  C          1.723000       -0.606000        0.553000
  C          0.938000        0.493000        1.268000
  C         -0.416000        0.648000        0.618000
  C         -1.504000       -0.103000        1.077000
  C         -2.760000        0.041000        0.475000
  C         -2.927000        0.938000       -0.588000
  C         -1.839000        1.689000       -1.047000
  C         -0.584000        1.545000       -0.444000
  C          3.076000       -0.762000        1.203000
  O          4.091000       -0.587000        0.548000
  O          3.159000       -1.076000        2.431000
  H         -3.895000        1.049000       -1.052000
  H         -1.968000        2.381000       -1.867000
  H          0.255000        2.125000       -0.799000
  H         -1.375000       -0.795000        1.897000
  H         -3.599000       -0.539000        0.829000
  H          0.809000        0.224000        2.314000
  H          1.483000        1.431000        1.199000
  H          1.851000       -0.337000       -0.494000
