13

C    -0.13400   -0.04700   -0.10100
C    -1.37900    0.80600    0.12200
N    -0.09300   -1.14300    0.91500
C     1.09800    0.81400    0.03800
O     1.87000    0.93100   -0.90000
O     1.33200    1.41800    1.13100
H    -0.16400   -0.47900   -1.09900
H    -2.26700    0.18500    0.02200
H    -1.40900    1.60400   -0.61700
H    -1.34900    1.23800    1.12000
H    -0.93700   -1.73400    0.82000
H     0.75200   -1.72200    0.76400
H    -0.06400   -0.73300    1.86500
