15

C    -0.60800    0.10700    0.27100
C     0.70900    0.83900    0.01900
C     1.85500   -0.14000    0.11400
O     3.00000    0.24400   -0.05700
O     1.62600   -1.36200    0.37200
N    -0.78500   -0.96900   -0.75200
C    -1.75400    1.08500    0.17600
O    -2.48400    1.26600    1.13700
O    -1.95900    1.72000   -0.90400
H    -0.59200   -0.33700    1.26500
H     0.83800    1.62100    0.76300
H     0.69200    1.28200   -0.97500
H    -1.67700   -1.46500   -0.58000
H     0.00000   -1.64000   -0.68600
H    -0.80100   -0.54700   -1.69700
