14

C     0.71900   -0.15400    0.01000
N     0.12500   -1.05400    1.04600
C     1.99700    0.45000    0.54100
O     3.05200    0.25200   -0.04000
O     1.97500    1.16300    1.59100
C    -0.27100    0.96200   -0.32200
S    -1.81200    0.23500   -0.96200
H     0.93400   -0.72700   -0.88900
H     0.16000    1.61700   -1.07600
H    -0.48700    1.53500    0.57700
H    -0.75100   -1.46800    0.68200
H     0.79600   -1.81000    1.27100
H    -0.08000   -0.50900    1.90100
H    -2.48000    1.36600   -1.16700
