9

C        -0.0000954697       -0.5848305673        0.0010750926
C        -0.0000384427        0.2567119884        1.2589574842
O        -0.0001154416        0.3189028524       -1.1149712770
H        -0.0001513369       -0.1169871629       -1.9596178470
H        -0.0000210625       -0.3728619386        2.1417488713
H         0.8763341133        0.8909664785        1.2838308746
H        -0.8765963277        0.8907637355        1.2842804340
H        -0.8757308072       -1.2247051167       -0.0329758156
H         0.8795936193       -1.2192505691       -0.0339518658
