18

C    -1.19800   -0.21500    0.73600
C     0.10800    0.55900    0.56000
C     1.27500   -0.42300    0.47600
C     2.56500    0.34200    0.30100
O     3.62300   -0.25900    0.21200
O     2.54900    1.61100    0.24700
N    -1.39800   -1.12800   -0.43100
C    -2.35100    0.75600    0.82000
O    -3.05400    0.78400    1.81600
O    -2.59000    1.54300   -0.14800
H    -1.15000   -0.80200    1.65200
H     0.25300    1.22300    1.40900
H     0.06100    1.14600   -0.35500
H    -2.28200   -1.65200   -0.31100
H    -0.60700   -1.79300   -0.48800
H    -1.44200   -0.57000   -1.30100
H     1.13000   -1.08800   -0.37400
H     1.32200   -1.01000    1.39100
