10

C     0.06600   -0.18100    0.85500
N    -1.33500    0.17300    0.46900
C     1.03600    0.60000    0.00200
O     2.23700    0.45700    0.15800
O     0.60100    1.40700   -0.87700
H     0.22500   -1.24700    0.70300
H     0.22500    0.06300    1.90300
H    -2.00000   -0.36300    1.05300
H    -1.48700    1.18600    0.61400
H    -1.48700   -0.06000   -0.52800
