22

C     1.22500    0.31200    0.24700
C    -0.06500   -0.46400   -0.01200
C    -0.24800   -1.52200    1.07200
C    -1.25100    0.49900    0.01000
C    -2.54000   -0.27600   -0.24800
N     1.40500    1.34900   -0.81500
C     2.39800   -0.63900    0.22500
O     3.10300   -0.76100    1.21300
O     2.64900   -1.31300   -0.82200
H     1.16900    0.79500    1.22000
H    -0.00900   -0.94800   -0.98500
H     2.27900    1.87400   -0.64000
H     0.60200    2.00100   -0.80000
H     1.45900    0.88900   -1.74100
H    -1.12100    1.25300   -0.76300
H    -1.30800    0.98200    0.98300
H    -1.16700   -2.07500    0.88800
H     0.59600   -2.20800    1.05600
H    -0.30500   -1.03900    2.04500
H    -3.38500    0.40900   -0.23200
H    -2.67100   -1.03100    0.52500
H    -2.48400   -0.76000   -1.22100
