22

C     1.10800    0.34400   -0.17100
C    -0.04900   -0.62700   -0.40200
C    -1.31100   -0.08500    0.26800
C    -2.20800   -1.24900    0.68100
C    -2.06200    0.81300   -0.71100
N     1.13300    1.35900   -1.26800
C     2.41100   -0.41900   -0.16000
O     3.12100   -0.39800    0.83100
O     2.76600   -1.08200   -1.18300
H     0.97400    0.84600    0.78500
H     0.20000   -1.59700    0.02400
H    -0.22400   -0.73500   -1.47100
H     2.06500    1.80900   -1.30100
H     0.40900    2.07700   -1.09100
H     0.94300    0.89400   -2.17300
H    -1.03500    0.49000    1.14900
H    -3.10600   -0.86300    1.15800
H    -1.67200   -1.88900    1.37900
H    -2.48400   -1.82400   -0.20000
H    -3.10600    0.88100   -0.41300
H    -1.61700    1.80600   -0.70600
H    -1.99700    0.39100   -1.71200
