20

C     1.94200    0.35800   -0.57000
C     0.62000    1.06800   -0.27900
C    -0.51900    0.05100   -0.29700
S    -2.09300    0.89600    0.05000
C    -3.35400   -0.41600    0.00000
N     2.18800   -0.68400    0.47300
C     3.06800    1.36400   -0.55300
O     3.75000    1.53300   -1.55000
O     3.30500    2.03400    0.50000
H     1.89200   -0.11300   -1.54900
H     0.44100    1.82700   -1.03800
H     0.67000    1.54000    0.70000
H     1.41600   -1.37300    0.46100
H     3.08300   -1.16500    0.27600
H     2.23500   -0.23500    1.40400
H    -0.34000   -0.70800    0.46200
H    -0.56900   -0.42100   -1.27600
H    -4.33300    0.01500    0.19900
H    -3.35600   -0.87900   -0.98500
H    -3.12700   -1.16600    0.75400
