14

C     0.43100    0.07700   -0.23000
C    -0.89600    0.79400    0.01300
O    -1.97100   -0.14300   -0.10000
N     0.60600   -1.00600    0.78600
C     1.56600    1.06600   -0.11100
O     2.30600    1.26200   -1.06000
O     1.75100    1.69300    0.97800
H     0.43200   -0.35800   -1.22700
H    -1.02300    1.58200   -0.72600
H    -0.89700    1.22800    1.01000
H    -0.17200   -1.68400    0.70400
H     1.50500   -1.49200    0.62100
H     0.60500   -0.59300    1.73500
H    -2.81800    0.30500    0.05300
