17

C     0.51700    0.09400   -0.24900
C    -0.81400    0.80300   -0.00300
C    -1.95500   -0.20400   -0.11800
O    -0.81400    1.37600    1.30700
N     0.70200   -0.98600    0.76800
C     1.64600    1.09100   -0.13600
O     2.38100    1.29000   -1.08900
O     1.83000    1.72100    0.95100
H     0.51700   -0.34200   -1.24600
H    -0.94900    1.58900   -0.74300
H     1.60400   -1.46600    0.60100
H    -0.07200   -1.66900    0.69000
H     0.70200   -0.57100    1.71600
H    -2.90300    0.30000    0.05700
H    -1.95500   -0.64100   -1.11400
H    -1.82000   -0.99000    0.62200
H    -1.65600    1.82800    1.47100
