27

C     2.13400   -1.37500    0.50200
C     1.28000   -0.37100    1.27500
C     0.33100    0.31900    0.32400
C    -1.04800    0.09800    0.22700
C    -1.54300    0.94000   -0.77600
N    -0.48300    1.66800   -1.28700
C     0.67000    1.29500   -0.62100
C    -2.90700    0.93000   -1.09000
C    -3.77700    0.07600   -0.40100
C    -3.28300   -0.76600    0.60200
C    -1.91900   -0.75500    0.91600
N     1.26100   -2.46400   -0.03300
C     3.17100   -1.96900    1.42500
O     4.35800   -1.83500    1.17700
O     2.80700   -2.60800    2.46100
H     1.66000    1.68800   -0.79800
H    -0.54200    2.35600   -2.02400
H    -4.83000    0.06800   -0.64300
H    -3.95400   -1.42400    1.13400
H    -1.53700   -1.40500    1.69000
H    -3.28800    1.58000   -1.86300
H     0.71000   -0.89300    2.04100
H     1.92500    0.36900    1.74300
H     2.63100   -0.86900   -0.32300
H     1.84000   -3.14400   -0.55700
H     0.55100   -2.05700   -0.66600
H     0.78900   -2.94500    0.75200
